Xincr a[31:0] pc_out[31:0] pc_increment

Wa a[31:0] nrz(0,3.3,100n,0n,.1n,.1n)
+ 0x0
+ 0x4
+ 0x8
+ 0xC
+ 0x10
+ 0x14
+ 0x18
+ 0x1c
+ 0x20
+ 0x24
+ 0x28
+ 0x444
+ 0x44c
+ 0x5ec


.tran 1500ns
.plot pc_out[31:0]